!-Generator IDFEditor 1.54
!-Option SortedOrder

!-NOTE: All comments with '!-' are ignored by the IDFEditor and are generated automatically.
!-      Use '!' comments if they need to be retained when using the IDFEditor.


!-   ===========  ALL OBJECTS IN CLASS: VERSION ===========

Version,
    24.1;                    !- Version Identifier


!-   ===========  ALL OBJECTS IN CLASS: SIMULATIONCONTROL ===========

SimulationControl,
    No,                      !- Do Zone Sizing Calculation
    No,                      !- Do System Sizing Calculation
    No,                      !- Do Plant Sizing Calculation
    Yes,                     !- Run Simulation for Sizing Periods
    Yes,                     !- Run Simulation for Weather File Run Periods
    Yes,                     !- Do HVAC Sizing Simulation for Sizing Periods
    1;                       !- Maximum Number of HVAC Sizing Simulation Passes


!-   ===========  ALL OBJECTS IN CLASS: BUILDING ===========

Building,
    Ref Bldg Large Office Pre1980_v1.3_5.0,  !- Name
    0,                       !- North Axis {deg}
    City,                    !- Terrain
    0.04,                    !- Loads Convergence Tolerance Value {W}
    0.2,                     !- Temperature Convergence Tolerance Value {deltaC}
    FullInteriorAndExterior, !- Solar Distribution
    25,                      !- Maximum Number of Warmup Days
    6;                       !- Minimum Number of Warmup Days


!-   ===========  ALL OBJECTS IN CLASS: SHADOWCALCULATION ===========

ShadowCalculation,
    PolygonClipping,         !- Shading Calculation Method
    Periodic,                !- Shading Calculation Update Frequency Method
    7,                       !- Shading Calculation Update Frequency
    15000,                   !- Maximum Figures in Shadow Overlap Calculations
    SutherlandHodgman,       !- Polygon Clipping Algorithm
    512,                     !- Pixel Counting Resolution
    SimpleSkyDiffuseModeling,!- Sky Diffuse Modeling Algorithm
    No,                      !- Output External Shading Calculation Results
    No,                      !- Disable Self-Shading Within Shading Zone Groups
    No;                      !- Disable Self-Shading From Shading Zone Groups to Other Zones


!-   ===========  ALL OBJECTS IN CLASS: HEATBALANCEALGORITHM ===========

HeatBalanceAlgorithm,
    ConductionTransferFunction,  !- Algorithm
    200;                     !- Surface Temperature Upper Limit {C}


!-   ===========  ALL OBJECTS IN CLASS: ZONEAIRHEATBALANCEALGORITHM ===========

ZoneAirHeatBalanceAlgorithm,
    AnalyticalSolution,      !- Algorithm
    No,                      !- Do Space Heat Balance for Sizing
    No;                      !- Do Space Heat Balance for Simulation


!-   ===========  ALL OBJECTS IN CLASS: TIMESTEP ===========

Timestep,
    6;                       !- Number of Timesteps per Hour


!-   ===========  ALL OBJECTS IN CLASS: CONVERGENCELIMITS ===========

ConvergenceLimits,
    2,                       !- Minimum System Timestep {minutes}
    25;                      !- Maximum HVAC Iterations


!-   ===========  ALL OBJECTS IN CLASS: SITE:LOCATION ===========

Site:Location,
    USA IL-CHICAGO-OHARE,    !- Name
    41.77,                   !- Latitude {deg}
    -87.75,                  !- Longitude {deg}
    -6,                      !- Time Zone {hr}
    190;                     !- Elevation {m}


!-   ===========  ALL OBJECTS IN CLASS: SIZINGPERIOD:DESIGNDAY ===========

SizingPeriod:DesignDay,
    CHICAGO Ann Clg .4% Condns WB=>MDB,  !- Name
    7,                       !- Month
    21,                      !- Day of Month
    SummerDesignDay,         !- Day Type
    31.2,                    !- Maximum Dry-Bulb Temperature {C}
    10.7,                    !- Daily Dry-Bulb Temperature Range {deltaC}
    DefaultMultipliers,      !- Dry-Bulb Temperature Range Modifier Type
    ,                        !- Dry-Bulb Temperature Range Modifier Day Schedule Name
    Wetbulb,                 !- Humidity Condition Type
    25.5,                    !- Wetbulb or DewPoint at Maximum Dry-Bulb {C}
    ,                        !- Humidity Condition Day Schedule Name
    ,                        !- Humidity Ratio at Maximum Dry-Bulb {kgWater/kgDryAir}
    ,                        !- Enthalpy at Maximum Dry-Bulb {J/kg}
    ,                        !- Daily Wet-Bulb Temperature Range {deltaC}
    99063,                   !- Barometric Pressure {Pa}
    5.3,                     !- Wind Speed {m/s}
    230,                     !- Wind Direction {deg}
    No,                      !- Rain Indicator
    No,                      !- Snow Indicator
    No,                      !- Daylight Saving Time Indicator
    ASHRAEClearSky,          !- Solar Model Indicator
    ,                        !- Beam Solar Day Schedule Name
    ,                        !- Diffuse Solar Day Schedule Name
    ,                        !- ASHRAE Clear Sky Optical Depth for Beam Irradiance (taub) {dimensionless}
    ,                        !- ASHRAE Clear Sky Optical Depth for Diffuse Irradiance (taud) {dimensionless}
    1,                       !- Sky Clearness
    ,                        !- Maximum Number Warmup Days
    FullResetAtBeginEnvironment;  !- Begin Environment Reset Mode

SizingPeriod:DesignDay,
    CHICAGO Ann Htg 99.6% Condns DB,  !- Name
    1,                       !- Month
    21,                      !- Day of Month
    WinterDesignDay,         !- Day Type
    -20.6,                   !- Maximum Dry-Bulb Temperature {C}
    0,                       !- Daily Dry-Bulb Temperature Range {deltaC}
    DefaultMultipliers,      !- Dry-Bulb Temperature Range Modifier Type
    ,                        !- Dry-Bulb Temperature Range Modifier Day Schedule Name
    Wetbulb,                 !- Humidity Condition Type
    -20.6,                   !- Wetbulb or DewPoint at Maximum Dry-Bulb {C}
    ,                        !- Humidity Condition Day Schedule Name
    ,                        !- Humidity Ratio at Maximum Dry-Bulb {kgWater/kgDryAir}
    ,                        !- Enthalpy at Maximum Dry-Bulb {J/kg}
    ,                        !- Daily Wet-Bulb Temperature Range {deltaC}
    99063,                   !- Barometric Pressure {Pa}
    4.9,                     !- Wind Speed {m/s}
    270,                     !- Wind Direction {deg}
    No,                      !- Rain Indicator
    No,                      !- Snow Indicator
    No,                      !- Daylight Saving Time Indicator
    ASHRAEClearSky,          !- Solar Model Indicator
    ,                        !- Beam Solar Day Schedule Name
    ,                        !- Diffuse Solar Day Schedule Name
    ,                        !- ASHRAE Clear Sky Optical Depth for Beam Irradiance (taub) {dimensionless}
    ,                        !- ASHRAE Clear Sky Optical Depth for Diffuse Irradiance (taud) {dimensionless}
    0,                       !- Sky Clearness
    ,                        !- Maximum Number Warmup Days
    FullResetAtBeginEnvironment;  !- Begin Environment Reset Mode


!-   ===========  ALL OBJECTS IN CLASS: RUNPERIOD ===========

RunPeriod,
    Run Period 1,            !- Name
    1,                       !- Begin Month
    1,                       !- Begin Day of Month
    2019,                    !- Begin Year
    12,                      !- End Month
    31,                      !- End Day of Month
    2019,                    !- End Year
    Tuesday,                 !- Day of Week for Start Day
    No,                      !- Use Weather File Holidays and Special Days
    No,                      !- Use Weather File Daylight Saving Period
    No,                      !- Apply Weekend Holiday Rule
    Yes,                     !- Use Weather File Rain Indicators
    Yes;                     !- Use Weather File Snow Indicators


!-   ===========  ALL OBJECTS IN CLASS: RUNPERIODCONTROL:SPECIALDAYS ===========

RunPeriodControl:SpecialDays,
    Christmas,               !- Name
    December 25,             !- Start Date
    1,                       !- Duration {days}
    Holiday;                 !- Special Day Type

RunPeriodControl:SpecialDays,
    Columbus Day,            !- Name
    2nd Monday in October,   !- Start Date
    1,                       !- Duration {days}
    Holiday;                 !- Special Day Type

RunPeriodControl:SpecialDays,
    Independence Day,        !- Name
    July 4,                  !- Start Date
    1,                       !- Duration {days}
    Holiday;                 !- Special Day Type

RunPeriodControl:SpecialDays,
    Labor Day,               !- Name
    1st Monday in September, !- Start Date
    1,                       !- Duration {days}
    Holiday;                 !- Special Day Type

RunPeriodControl:SpecialDays,
    Memorial Day,            !- Name
    Last Monday in May,      !- Start Date
    1,                       !- Duration {days}
    Holiday;                 !- Special Day Type

RunPeriodControl:SpecialDays,
    MLK Day,                 !- Name
    3rd Monday in January,   !- Start Date
    1,                       !- Duration {days}
    Holiday;                 !- Special Day Type

RunPeriodControl:SpecialDays,
    New Years Day,           !- Name
    January 1,               !- Start Date
    1,                       !- Duration {days}
    Holiday;                 !- Special Day Type

RunPeriodControl:SpecialDays,
    Presidents Day,          !- Name
    3rd Monday in February,  !- Start Date
    1,                       !- Duration {days}
    Holiday;                 !- Special Day Type

RunPeriodControl:SpecialDays,
    Thanksgiving,            !- Name
    4th Thursday in November,!- Start Date
    1,                       !- Duration {days}
    Holiday;                 !- Special Day Type

RunPeriodControl:SpecialDays,
    Veterans Day,            !- Name
    November 11,             !- Start Date
    1,                       !- Duration {days}
    Holiday;                 !- Special Day Type


!-   ===========  ALL OBJECTS IN CLASS: RUNPERIODCONTROL:DAYLIGHTSAVINGTIME ===========

RunPeriodControl:DaylightSavingTime,
    1/1,                     !- Start Date
    12/31;                   !- End Date


!-   ===========  ALL OBJECTS IN CLASS: SITE:GROUNDTEMPERATURE:BUILDINGSURFACE ===========

Site:GroundTemperature:BuildingSurface,
    15,                      !- January Ground Temperature {C}
    15,                      !- February Ground Temperature {C}
    15,                      !- March Ground Temperature {C}
    15,                      !- April Ground Temperature {C}
    15,                      !- May Ground Temperature {C}
    15,                      !- June Ground Temperature {C}
    15,                      !- July Ground Temperature {C}
    15,                      !- August Ground Temperature {C}
    15,                      !- September Ground Temperature {C}
    15,                      !- October Ground Temperature {C}
    15,                      !- November Ground Temperature {C}
    15;                      !- December Ground Temperature {C}


!-   ===========  ALL OBJECTS IN CLASS: SCHEDULETYPELIMITS ===========

ScheduleTypeLimits,
    Fraction,                !- Name
    0,                       !- Lower Limit Value
    1,                       !- Upper Limit Value
    CONTINUOUS;              !- Numeric Type

ScheduleTypeLimits,
    ActivityLevel,           !- Name
    0,                       !- Lower Limit Value
    ,                        !- Upper Limit Value
    Continuous,              !- Numeric Type
    activitylevel;           !- Unit Type

ScheduleTypeLimits,
    Any Number;              !- Name

ScheduleTypeLimits,
    Velocity,                !- Name
    0,                       !- Lower Limit Value
    ,                        !- Upper Limit Value
    Continuous,              !- Numeric Type
    velocity;                !- Unit Type

ScheduleTypeLimits,
    Basement Thermostat Schedule Type Limits,  !- Name
    0,                       !- Lower Limit Value
    4,                       !- Upper Limit Value
    DISCRETE;                !- Numeric Type

ScheduleTypeLimits,
    Temperature,             !- Name
    -60,                     !- Lower Limit Value
    200,                     !- Upper Limit Value
    CONTINUOUS,              !- Numeric Type
    temperature;             !- Unit Type

ScheduleTypeLimits,
    Core_bottom Thermostat Schedule Type Limits,  !- Name
    0,                       !- Lower Limit Value
    4,                       !- Upper Limit Value
    DISCRETE;                !- Numeric Type

ScheduleTypeLimits,
    Core_mid Thermostat Schedule Type Limits,  !- Name
    0,                       !- Lower Limit Value
    4,                       !- Upper Limit Value
    DISCRETE;                !- Numeric Type

ScheduleTypeLimits,
    Core_top Thermostat Schedule Type Limits,  !- Name
    0,                       !- Lower Limit Value
    4,                       !- Upper Limit Value
    DISCRETE;                !- Numeric Type

ScheduleTypeLimits,
    Perimeter_bot_ZN_1 Thermostat Schedule Type Limits,  !- Name
    0,                       !- Lower Limit Value
    4,                       !- Upper Limit Value
    DISCRETE;                !- Numeric Type

ScheduleTypeLimits,
    Perimeter_bot_ZN_2 Thermostat Schedule Type Limits,  !- Name
    0,                       !- Lower Limit Value
    4,                       !- Upper Limit Value
    DISCRETE;                !- Numeric Type

ScheduleTypeLimits,
    Perimeter_bot_ZN_3 Thermostat Schedule Type Limits,  !- Name
    0,                       !- Lower Limit Value
    4,                       !- Upper Limit Value
    DISCRETE;                !- Numeric Type

ScheduleTypeLimits,
    Perimeter_bot_ZN_4 Thermostat Schedule Type Limits,  !- Name
    0,                       !- Lower Limit Value
    4,                       !- Upper Limit Value
    DISCRETE;                !- Numeric Type

ScheduleTypeLimits,
    Perimeter_mid_ZN_1 Thermostat Schedule Type Limits,  !- Name
    0,                       !- Lower Limit Value
    4,                       !- Upper Limit Value
    DISCRETE;                !- Numeric Type

ScheduleTypeLimits,
    Perimeter_mid_ZN_2 Thermostat Schedule Type Limits,  !- Name
    0,                       !- Lower Limit Value
    4,                       !- Upper Limit Value
    DISCRETE;                !- Numeric Type

ScheduleTypeLimits,
    Perimeter_mid_ZN_3 Thermostat Schedule Type Limits,  !- Name
    0,                       !- Lower Limit Value
    4,                       !- Upper Limit Value
    DISCRETE;                !- Numeric Type

ScheduleTypeLimits,
    Perimeter_mid_ZN_4 Thermostat Schedule Type Limits,  !- Name
    0,                       !- Lower Limit Value
    4,                       !- Upper Limit Value
    DISCRETE;                !- Numeric Type

ScheduleTypeLimits,
    Perimeter_top_ZN_1 Thermostat Schedule Type Limits,  !- Name
    0,                       !- Lower Limit Value
    4,                       !- Upper Limit Value
    DISCRETE;                !- Numeric Type

ScheduleTypeLimits,
    Perimeter_top_ZN_2 Thermostat Schedule Type Limits,  !- Name
    0,                       !- Lower Limit Value
    4,                       !- Upper Limit Value
    DISCRETE;                !- Numeric Type

ScheduleTypeLimits,
    Perimeter_top_ZN_3 Thermostat Schedule Type Limits,  !- Name
    0,                       !- Lower Limit Value
    4,                       !- Upper Limit Value
    DISCRETE;                !- Numeric Type

ScheduleTypeLimits,
    Perimeter_top_ZN_4 Thermostat Schedule Type Limits,  !- Name
    0,                       !- Lower Limit Value
    4,                       !- Upper Limit Value
    DISCRETE;                !- Numeric Type

ScheduleTypeLimits,
    Fractional,              !- Name
    0,                       !- Lower Limit Value
    1,                       !- Upper Limit Value
    Continuous;              !- Numeric Type

ScheduleTypeLimits,
    Humidity,                !- Name
    10,                      !- Lower Limit Value
    90,                      !- Upper Limit Value
    CONTINUOUS;              !- Numeric Type

ScheduleTypeLimits,
    On/Off,                  !- Name
    0,                       !- Lower Limit Value
    1,                       !- Upper Limit Value
    DISCRETE,                !- Numeric Type
    availability;            !- Unit Type

ScheduleTypeLimits,
    OnOff,                   !- Name
    0,                       !- Lower Limit Value
    1,                       !- Upper Limit Value
    Discrete,                !- Numeric Type
    availability;            !- Unit Type

ScheduleTypeLimits,
    OnOff 1,                 !- Name
    0,                       !- Lower Limit Value
    1,                       !- Upper Limit Value
    Discrete,                !- Numeric Type
    availability;            !- Unit Type

ScheduleTypeLimits,
    OnOff hvac_library,      !- Name
    0,                       !- Lower Limit Value
    1,                       !- Upper Limit Value
    Discrete,                !- Numeric Type
    availability;            !- Unit Type

ScheduleTypeLimits,
    Schedule Type Limits 1;  !- Name

ScheduleTypeLimits,
    Schedule Type Limits 2;  !- Name

ScheduleTypeLimits,
    Schedule Type Limits 3;  !- Name

ScheduleTypeLimits,
    Schedule Type Limits 4;  !- Name

ScheduleTypeLimits,
    Schedule Type Limits 5;  !- Name

ScheduleTypeLimits,
    Temperature 1,           !- Name
    ,                        !- Lower Limit Value
    ,                        !- Upper Limit Value
    Continuous,              !- Numeric Type
    temperature;             !- Unit Type

ScheduleTypeLimits,
    Temperature 2,           !- Name
    ,                        !- Lower Limit Value
    ,                        !- Upper Limit Value
    Continuous,              !- Numeric Type
    temperature;             !- Unit Type


!-   ===========  ALL OBJECTS IN CLASS: SCHEDULE:COMPACT ===========

Schedule:Compact,
    BLDG_LIGHT_SCH,          !- Name
    Fraction,                !- Schedule Type Limits Name
    Through: 12/31,          !- Field 1
    For: Weekdays,           !- Field 2
    Until: 05:00,            !- Field 3
    0.05,                    !- Field 4
    Until: 07:00,            !- Field 5
    0.1,                     !- Field 6
    Until: 08:00,            !- Field 7
    0.3,                     !- Field 8
    Until: 17:00,            !- Field 9
    0.9,                     !- Field 10
    Until: 18:00,            !- Field 11
    0.7,                     !- Field 12
    Until: 20:00,            !- Field 13
    0.5,                     !- Field 14
    Until: 22:00,            !- Field 15
    0.3,                     !- Field 16
    Until: 23:00,            !- Field 17
    0.1,                     !- Field 18
    Until: 24:00,            !- Field 19
    0.05,                    !- Field 20
    For: Saturday,           !- Field 21
    Until: 06:00,            !- Field 22
    0.05,                    !- Field 23
    Until: 08:00,            !- Field 24
    0.1,                     !- Field 25
    Until: 14:00,            !- Field 26
    0.5,                     !- Field 27
    Until: 17:00,            !- Field 28
    0.15,                    !- Field 29
    Until: 24:00,            !- Field 30
    0.05,                    !- Field 31
    For: SummerDesignDay,    !- Field 32
    Until: 24:00,            !- Field 33
    1.0,                     !- Field 34
    For: WinterDesignDay,    !- Field 35
    Until: 24:00,            !- Field 36
    0.0,                     !- Field 37
    For: AllOtherDays,       !- Field 38
    Until: 24:00,            !- Field 39
    0.05;                    !- Field 40

Schedule:Compact,
    BLDG_OCC_SCH,            !- Name
    Fraction,                !- Schedule Type Limits Name
    Through: 12/31,          !- Field 1
    For: SummerDesignDay,    !- Field 2
    Until: 06:00,            !- Field 3
    0.0,                     !- Field 4
    Until: 22:00,            !- Field 5
    1.0,                     !- Field 6
    Until: 24:00,            !- Field 7
    0.05,                    !- Field 8
    For: Weekdays,           !- Field 9
    Until: 06:00,            !- Field 10
    0.0,                     !- Field 11
    Until: 07:00,            !- Field 12
    0.1,                     !- Field 13
    Until: 08:00,            !- Field 14
    0.2,                     !- Field 15
    Until: 12:00,            !- Field 16
    0.95,                    !- Field 17
    Until: 13:00,            !- Field 18
    0.5,                     !- Field 19
    Until: 17:00,            !- Field 20
    0.95,                    !- Field 21
    Until: 18:00,            !- Field 22
    0.7,                     !- Field 23
    Until: 20:00,            !- Field 24
    0.4,                     !- Field 25
    Until: 22:00,            !- Field 26
    0.1,                     !- Field 27
    Until: 24:00,            !- Field 28
    0.05,                    !- Field 29
    For: Saturday,           !- Field 30
    Until: 06:00,            !- Field 31
    0.0,                     !- Field 32
    Until: 08:00,            !- Field 33
    0.1,                     !- Field 34
    Until: 14:00,            !- Field 35
    0.5,                     !- Field 36
    Until: 17:00,            !- Field 37
    0.1,                     !- Field 38
    Until: 24:00,            !- Field 39
    0.0,                     !- Field 40
    For: AllOtherDays,       !- Field 41
    Until: 24:00,            !- Field 42
    0.0;                     !- Field 43

Schedule:Compact,
    ACTIVITY_SCH,            !- Name
    ActivityLevel,           !- Schedule Type Limits Name
    Through: 12/31,          !- Field 1
    For: AllDays,            !- Field 2
    Until: 24:00,            !- Field 3
    120;                     !- Field 4

Schedule:Compact,
    WORK_EFF_SCH,            !- Name
    Fraction,                !- Schedule Type Limits Name
    Through: 12/31,          !- Field 1
    For: AllDays,            !- Field 2
    Until: 24:00,            !- Field 3
    0.0;                     !- Field 4

Schedule:Compact,
    CLOTHING_SCH,            !- Name
    Any Number,              !- Schedule Type Limits Name
    Through: 04/30,          !- Field 1
    For: AllDays,            !- Field 2
    Until: 24:00,            !- Field 3
    1.0,                     !- Field 4
    Through: 09/30,          !- Field 5
    For: AllDays,            !- Field 6
    Until: 24:00,            !- Field 7
    0.5,                     !- Field 8
    Through: 12/31,          !- Field 9
    For: AllDays,            !- Field 10
    Until: 24:00,            !- Field 11
    1.0;                     !- Field 12

Schedule:Compact,
    AIR_VELO_SCH,            !- Name
    Velocity,                !- Schedule Type Limits Name
    Through: 12/31,          !- Field 1
    For: AllDays,            !- Field 2
    Until: 24:00,            !- Field 3
    0.2;                     !- Field 4

Schedule:Compact,
    BLDG_EQUIP_SCH,          !- Name
    Fraction,                !- Schedule Type Limits Name
    Through: 12/31,          !- Field 1
    For: Weekdays,           !- Field 2
    Until: 08:00,            !- Field 3
    0.40,                    !- Field 4
    Until: 12:00,            !- Field 5
    0.90,                    !- Field 6
    Until: 13:00,            !- Field 7
    0.80,                    !- Field 8
    Until: 17:00,            !- Field 9
    0.90,                    !- Field 10
    Until: 18:00,            !- Field 11
    0.80,                    !- Field 12
    Until: 20:00,            !- Field 13
    0.60,                    !- Field 14
    Until: 22:00,            !- Field 15
    0.50,                    !- Field 16
    Until: 24:00,            !- Field 17
    0.40,                    !- Field 18
    For: Saturday,           !- Field 19
    Until: 06:00,            !- Field 20
    0.30,                    !- Field 21
    Until: 08:00,            !- Field 22
    0.4,                     !- Field 23
    Until: 14:00,            !- Field 24
    0.5,                     !- Field 25
    Until: 17:00,            !- Field 26
    0.35,                    !- Field 27
    Until: 24:00,            !- Field 28
    0.30,                    !- Field 29
    For: SummerDesignDay,    !- Field 30
    Until: 24:00,            !- Field 31
    1.0,                     !- Field 32
    For: WinterDesignDay,    !- Field 33
    Until: 24:00,            !- Field 34
    0.0,                     !- Field 35
    For: AllOtherDays,       !- Field 36
    Until: 24:00,            !- Field 37
    0.30;                    !- Field 38

Schedule:Compact,
    Basement Thermostat Schedule,  !- Name
    Basement Thermostat Schedule Type Limits,  !- Schedule Type Limits Name
    Through: 12/31,          !- Field 1
    For: AllDays,            !- Field 2
    Until: 24:00,            !- Field 3
    4;                       !- Field 4

Schedule:Compact,
    HTGSETP_SCH,             !- Name
    Temperature,             !- Schedule Type Limits Name
    Through: 12/31,          !- Field 1
    For: Weekdays,           !- Field 2
    Until: 06:00,            !- Field 3
    15.6,                    !- Field 4
    Until: 22:00,            !- Field 5
    21.0,                    !- Field 6
    Until: 24:00,            !- Field 7
    15.6,                    !- Field 8
    For SummerDesignDay,     !- Field 9
    Until: 24:00,            !- Field 10
    15.6,                    !- Field 11
    For: Saturday,           !- Field 12
    Until: 06:00,            !- Field 13
    15.6,                    !- Field 14
    Until: 18:00,            !- Field 15
    21.0,                    !- Field 16
    Until: 24:00,            !- Field 17
    15.6,                    !- Field 18
    For: WinterDesignDay,    !- Field 19
    Until: 24:00,            !- Field 20
    21.0,                    !- Field 21
    For: AllOtherDays,       !- Field 22
    Until: 24:00,            !- Field 23
    15.6;                    !- Field 24

Schedule:Compact,
    CLGSETP_SCH,             !- Name
    Temperature,             !- Schedule Type Limits Name
    Through: 12/31,          !- Field 1
    For: Weekdays SummerDesignDay,  !- Field 2
    Until: 06:00,            !- Field 3
    26.7,                    !- Field 4
    Until: 22:00,            !- Field 5
    24.0,                    !- Field 6
    Until: 24:00,            !- Field 7
    26.7,                    !- Field 8
    For: Saturday,           !- Field 9
    Until: 06:00,            !- Field 10
    26.7,                    !- Field 11
    Until: 18:00,            !- Field 12
    24.0,                    !- Field 13
    Until: 24:00,            !- Field 14
    26.7,                    !- Field 15
    For WinterDesignDay,     !- Field 16
    Until: 24:00,            !- Field 17
    26.7,                    !- Field 18
    For: AllOtherDays,       !- Field 19
    Until: 24:00,            !- Field 20
    26.7;                    !- Field 21

Schedule:Compact,
    Core_bottom Thermostat Schedule,  !- Name
    Core_bottom Thermostat Schedule Type Limits,  !- Schedule Type Limits Name
    Through: 12/31,          !- Field 1
    For: AllDays,            !- Field 2
    Until: 24:00,            !- Field 3
    4;                       !- Field 4

Schedule:Compact,
    Core_mid Thermostat Schedule,  !- Name
    Core_mid Thermostat Schedule Type Limits,  !- Schedule Type Limits Name
    Through: 12/31,          !- Field 1
    For: AllDays,            !- Field 2
    Until: 24:00,            !- Field 3
    4;                       !- Field 4

Schedule:Compact,
    Core_top Thermostat Schedule,  !- Name
    Core_top Thermostat Schedule Type Limits,  !- Schedule Type Limits Name
    Through: 12/31,          !- Field 1
    For: AllDays,            !- Field 2
    Until: 24:00,            !- Field 3
    4;                       !- Field 4

Schedule:Compact,
    Perimeter_bot_ZN_1 Thermostat Schedule,  !- Name
    Perimeter_bot_ZN_1 Thermostat Schedule Type Limits,  !- Schedule Type Limits Name
    Through: 12/31,          !- Field 1
    For: AllDays,            !- Field 2
    Until: 24:00,            !- Field 3
    4;                       !- Field 4

Schedule:Compact,
    Perimeter_bot_ZN_2 Thermostat Schedule,  !- Name
    Perimeter_bot_ZN_2 Thermostat Schedule Type Limits,  !- Schedule Type Limits Name
    Through: 12/31,          !- Field 1
    For: AllDays,            !- Field 2
    Until: 24:00,            !- Field 3
    4;                       !- Field 4

Schedule:Compact,
    Perimeter_bot_ZN_3 Thermostat Schedule,  !- Name
    Perimeter_bot_ZN_3 Thermostat Schedule Type Limits,  !- Schedule Type Limits Name
    Through: 12/31,          !- Field 1
    For: AllDays,            !- Field 2
    Until: 24:00,            !- Field 3
    4;                       !- Field 4

Schedule:Compact,
    Perimeter_bot_ZN_4 Thermostat Schedule,  !- Name
    Perimeter_bot_ZN_4 Thermostat Schedule Type Limits,  !- Schedule Type Limits Name
    Through: 12/31,          !- Field 1
    For: AllDays,            !- Field 2